         232
           0           4           6          21
O          0.0000000000         0.0000000000         0.0000000000
Mg         2.0970013927         2.0970013927         2.0970013927
Mg        -2.0970013927        -2.0970013927        -2.0970013927
O         -2.0970013927        -2.0970013927        -4.1940027854
Mg         0.0000000000         0.0000000000        -2.0970013927
O          0.0000000000         0.0000000000        -4.1940027854
Mg         2.0970013927         2.0970013927        -2.0970013927
O         -2.0970013927        -4.1940027854        -2.0970013927
Mg         0.0000000000        -2.0970013927         0.0000000000
O          0.0000000000        -2.0970013927        -2.0970013927
Mg         2.0970013927         0.0000000000         0.0000000000
O          2.0970013927         0.0000000000        -2.0970013927
Mg         4.1940027854         2.0970013927         0.0000000000
O          0.0000000000        -4.1940027854         0.0000000000
Mg         2.0970013927        -2.0970013927         2.0970013927
O          2.0970013927        -2.0970013927         0.0000000000
Mg         4.1940027854         0.0000000000         2.0970013927
O          4.1940027854         0.0000000000         0.0000000000
Mg         6.2910041780         2.0970013927         2.0970013927
O         -4.1940027854        -2.0970013927        -2.0970013927
Mg        -2.0970013927         0.0000000000         0.0000000000
O         -2.0970013927         0.0000000000        -2.0970013927
Mg         0.0000000000         2.0970013927         0.0000000000
O          0.0000000000         2.0970013927        -2.0970013927
Mg         2.0970013927         4.1940027854         0.0000000000
O         -2.0970013927        -2.0970013927         0.0000000000
Mg         0.0000000000         0.0000000000         2.0970013927
O          2.0970013927         2.0970013927         0.0000000000
Mg         4.1940027854         4.1940027854         2.0970013927
O          0.0000000000        -2.0970013927         2.0970013927
Mg         2.0970013927         0.0000000000         4.1940027854
O          2.0970013927         0.0000000000         2.0970013927
Mg         4.1940027854         2.0970013927         4.1940027854
O          4.1940027854         2.0970013927         2.0970013927
O         -4.1940027854         0.0000000000         0.0000000000
Mg        -2.0970013927         2.0970013927         2.0970013927
O         -2.0970013927         2.0970013927         0.0000000000
Mg         0.0000000000         4.1940027854         2.0970013927
O          0.0000000000         4.1940027854         0.0000000000
Mg         2.0970013927         6.2910041780         2.0970013927
O         -2.0970013927         0.0000000000         2.0970013927
Mg         0.0000000000         2.0970013927         4.1940027854
O          0.0000000000         2.0970013927         2.0970013927
Mg         2.0970013927         4.1940027854         4.1940027854
O          2.0970013927         4.1940027854         2.0970013927
O          0.0000000000         0.0000000000         4.1940027854
Mg         2.0970013927         2.0970013927         6.2910041780
O          2.0970013927         2.0970013927         4.1940027854
Mg        -2.0970013927        -2.0970013927        -6.2910041780
Mg         0.0000000000         0.0000000000        -6.2910041780
Mg         2.0970013927         2.0970013927        -6.2910041780
Mg        -2.0970013927        -4.1940027854        -4.1940027854
Mg         0.0000000000        -2.0970013927        -4.1940027854
O          0.0000000000        -2.0970013927        -6.2910041780
Mg         2.0970013927         0.0000000000        -4.1940027854
O          2.0970013927         0.0000000000        -6.2910041780
Mg         4.1940027854         2.0970013927        -4.1940027854
Mg        -2.0970013927        -6.2910041780        -2.0970013927
Mg         0.0000000000        -4.1940027854        -2.0970013927
O          0.0000000000        -4.1940027854        -4.1940027854
Mg         2.0970013927        -2.0970013927        -2.0970013927
O          2.0970013927        -2.0970013927        -4.1940027854
Mg         4.1940027854         0.0000000000        -2.0970013927
O          4.1940027854         0.0000000000        -4.1940027854
Mg         6.2910041780         2.0970013927        -2.0970013927
Mg         0.0000000000        -6.2910041780         0.0000000000
O          0.0000000000        -6.2910041780        -2.0970013927
Mg         2.0970013927        -4.1940027854         0.0000000000
O          2.0970013927        -4.1940027854        -2.0970013927
Mg         4.1940027854        -2.0970013927         0.0000000000
O          4.1940027854        -2.0970013927        -2.0970013927
Mg         6.2910041780         0.0000000000         0.0000000000
O          6.2910041780         0.0000000000        -2.0970013927
Mg         2.0970013927        -6.2910041780         2.0970013927
O          2.0970013927        -6.2910041780         0.0000000000
Mg         4.1940027853        -4.1940027854         2.0970013927
O          4.1940027854        -4.1940027854         0.0000000000
Mg         6.2910041780        -2.0970013927         2.0970013927
O          6.2910041780        -2.0970013927         0.0000000000
Mg        -4.1940027854        -2.0970013927        -4.1940027854
Mg        -2.0970013927         0.0000000000        -4.1940027854
O         -2.0970013927         0.0000000000        -6.2910041780
Mg         0.0000000000         2.0970013927        -4.1940027854
O          0.0000000000         2.0970013927        -6.2910041780
Mg         2.0970013927         4.1940027854        -4.1940027854
Mg        -4.1940027854        -4.1940027854        -2.0970013927
O          2.0970013927         2.0970013927        -4.1940027854
Mg         4.1940027854         4.1940027854        -2.0970013927
Mg        -2.0970013927        -4.1940027854         0.0000000000
O          4.1940027854         2.0970013927        -2.0970013927
O         -2.0970013927        -6.2910041780         0.0000000000
Mg         0.0000000000        -4.1940027854         2.0970013927
O          6.2910041780         2.0970013927         0.0000000000
O          0.0000000000        -6.2910041780         2.0970013927
Mg         2.0970013927        -4.1940027854         4.1940027854
O          2.0970013927        -4.1940027854         2.0970013927
Mg         4.1940027853        -2.0970013927         4.1940027854
O          4.1940027854        -2.0970013927         2.0970013927
O          6.2910041780         0.0000000000         2.0970013927
Mg        -6.2910041780        -2.0970013927        -2.0970013927
Mg        -4.1940027854         0.0000000000        -2.0970013927
O         -4.1940027854         0.0000000000        -4.1940027854
Mg        -2.0970013927         2.0970013927        -2.0970013927
O         -2.0970013927         2.0970013927        -4.1940027854
Mg         0.0000000000         4.1940027854        -2.0970013927
O          0.0000000000         4.1940027854        -4.1940027854
Mg         2.0970013927         6.2910041780        -2.0970013927
Mg        -4.1940027854        -2.0970013927         0.0000000000
O          2.0970013927         4.1940027854        -2.0970013927
O         -4.1940027854        -4.1940027854         0.0000000000
Mg        -2.0970013927        -2.0970013927         2.0970013927
O          4.1940027854         4.1940027854         0.0000000000
O         -2.0970013927        -4.1940027854         2.0970013927
Mg         0.0000000000        -2.0970013927         4.1940027854
O          0.0000000000        -4.1940027854         4.1940027854
Mg         2.0970013927        -2.0970013927         6.2910041780
O          2.0970013927        -2.0970013927         4.1940027854
O          4.1940027854         0.0000000000         4.1940027854
Mg        -6.2910041780         0.0000000000         0.0000000000
O         -6.2910041780         0.0000000000        -2.0970013927
Mg        -4.1940027854         2.0970013927         0.0000000000
O         -4.1940027854         2.0970013927        -2.0970013927
Mg        -2.0970013927         4.1940027854         0.0000000000
O         -2.0970013927         4.1940027854        -2.0970013927
Mg         0.0000000000         6.2910041780         0.0000000000
O          0.0000000000         6.2910041780        -2.0970013927
O         -6.2910041780        -2.0970013927         0.0000000000
Mg        -4.1940027854         0.0000000000         2.0970013927
O          2.0970013927         6.2910041780         0.0000000000
O         -4.1940027854        -2.0970013927         2.0970013927
Mg        -2.0970013927         0.0000000000         4.1940027854
O         -2.0970013927        -2.0970013927         4.1940027854
Mg         0.0000000000         0.0000000000         6.2910041780
O          0.0000000000        -2.0970013927         6.2910041780
O          2.0970013927         0.0000000000         6.2910041780
Mg        -6.2910041780         2.0970013927         2.0970013927
O         -6.2910041780         2.0970013927         0.0000000000
Mg        -4.1940027854         4.1940027853         2.0970013927
O         -4.1940027854         4.1940027854         0.0000000000
Mg        -2.0970013927         6.2910041780         2.0970013927
O         -2.0970013927         6.2910041780         0.0000000000
O         -6.2910041780         0.0000000000         2.0970013927
Mg        -4.1940027854         2.0970013927         4.1940027853
O         -4.1940027854         2.0970013927         2.0970013927
Mg        -2.0970013927         4.1940027853         4.1940027853
O         -2.0970013927         4.1940027854         2.0970013927
O          0.0000000000         6.2910041780         2.0970013927
O         -4.1940027854         0.0000000000         4.1940027854
Mg        -2.0970013927         2.0970013927         6.2910041780
O         -2.0970013927         2.0970013927         4.1940027854
O          0.0000000000         4.1940027854         4.1940027854
O         -2.0970013927         0.0000000000         6.2910041780
O          0.0000000000         2.0970013927         6.2910041780
Mg         2.0970013927        -2.0970013927        -6.2910041780
Mg         2.0970013927        -4.1940027853        -4.1940027853
Mg         4.1940027854        -2.0970013927        -4.1940027853
Mg         2.0970013927        -6.2910041780        -2.0970013927
Mg         4.1940027854        -4.1940027853        -2.0970013927
Mg         6.2910041780        -2.0970013927        -2.0970013927
Mg        -2.0970013927         2.0970013927        -6.2910041780
Mg        -2.0970013927        -6.2910041780         2.0970013927
Mg        -4.1940027853         2.0970013927        -4.1940027853
Mg        -2.0970013927         4.1940027854        -4.1940027853
Mg        -4.1940027853        -4.1940027853         2.0970013927
Mg        -2.0970013927        -4.1940027853         4.1940027854
Mg        -6.2910041780         2.0970013927        -2.0970013927
Mg        -4.1940027853         4.1940027854        -2.0970013927
Mg        -2.0970013927         6.2910041780        -2.0970013927
Mg        -6.2910041780        -2.0970013927         2.0970013927
Mg        -4.1940027853        -2.0970013927         4.1940027854
Mg        -2.0970013927        -2.0970013927         6.2910041780
Mg         6.2910041780         4.1940027854         4.1940027854
Mg         4.1940027854         6.2910041780         4.1940027854
Mg         4.1940027854         4.1940027854         6.2910041780
O          4.1940027854         4.1940027854         4.1940027854
Mg         8.3880055707         2.0970013927         0.0000000000
Mg         8.3880055707         0.0000000000         2.0970013927
O          8.3880055707         0.0000000000         0.0000000000
Mg         6.2910041780         4.1940027854         0.0000000000
Mg         8.3880055707         4.1940027854         2.0970013927
Mg         6.2910041780         0.0000000000         4.1940027854
Mg         8.3880055707         2.0970013927         4.1940027854
O          8.3880055707         2.0970013927         2.0970013927
Mg         4.1940027854         6.2910041780         0.0000000000
Mg         6.2910041780         6.2910041780         2.0970013927
O          6.2910041780         4.1940027854         2.0970013927
Mg         4.1940027853         0.0000000000         6.2910041780
Mg         6.2910041780         2.0970013927         6.2910041780
O          6.2910041780         2.0970013927         4.1940027854
O          8.3880055707         4.1940027854         4.1940027854
Mg         2.0970013927         8.3880055707         0.0000000000
Mg         4.1940027854         8.3880055707         2.0970013927
O          4.1940027854         6.2910041780         2.0970013927
O          6.2910041780         6.2910041780         4.1940027854
Mg         2.0970013927         0.0000000000         8.3880055707
Mg         4.1940027853         2.0970013927         8.3880055707
O          4.1940027854         2.0970013927         6.2910041780
O          6.2910041780         4.1940027854         6.2910041780
Mg         0.0000000000         8.3880055707         2.0970013927
O          0.0000000000         8.3880055707         0.0000000000
Mg         0.0000000000         6.2910041780         4.1940027853
Mg         2.0970013927         8.3880055707         4.1940027853
O          2.0970013927         8.3880055707         2.0970013927
Mg         0.0000000000         4.1940027853         6.2910041780
Mg         2.0970013927         6.2910041780         6.2910041780
O          2.0970013927         6.2910041780         4.1940027854
O          4.1940027854         8.3880055707         4.1940027854
Mg         0.0000000000         2.0970013927         8.3880055707
Mg         2.0970013927         4.1940027853         8.3880055707
O          2.0970013927         4.1940027854         6.2910041780
O          4.1940027854         6.2910041780         6.2910041780
O          0.0000000000         0.0000000000         8.3880055707
O          2.0970013927         2.0970013927         8.3880055707
O          4.1940027854         4.1940027854         8.3880055707
O          4.1940027853         4.1940027853        -4.1940027854
O          6.2910041780         4.1940027853        -2.0970013927
O          8.3880055707         4.1940027853         0.0000000000
O          4.1940027853        -4.1940027854         4.1940027853
O          6.2910041780        -2.0970013927         4.1940027853
O          8.3880055707         0.0000000000         4.1940027853
O          4.1940027853         6.2910041780        -2.0970013927
O          6.2910041780         6.2910041780         0.0000000000
O          4.1940027853        -2.0970013927         6.2910041780
O          6.2910041780         0.0000000000         6.2910041780
O          4.1940027853         8.3880055707         0.0000000000
O          4.1940027853         0.0000000000         8.3880055707
O         -4.1940027854         4.1940027853         4.1940027853
O         -2.0970013927         6.2910041780         4.1940027853
O          0.0000000000         8.3880055707         4.1940027853
O         -2.0970013927         4.1940027853         6.2910041780
O          0.0000000000         6.2910041780         6.2910041780
O          0.0000000000         4.1940027853         8.3880055707
