         106
           0          17           5          14
Ge         0.0000000000         0.0000000000         0.0000000000     0
Ge         1.4407155000         1.4407155000         1.4407155000     0
Ge        -4.3221465000        -4.3221465000        -4.3221465000     0
Ge        -2.8814310000        -2.8814310000        -5.7628620000     0
Ge        -1.4407155000        -1.4407155000        -4.3221465000     0
Ge         0.0000000000         0.0000000000        -5.7628620000     0
Ge         1.4407155000         1.4407155000        -4.3221465000     0
Ge        -2.8814310000        -5.7628620000        -2.8814310000     0
Ge        -1.4407155000        -4.3221465000        -1.4407155000     0
Ge         0.0000000000        -2.8814310000        -2.8814310000     0
Ge         1.4407155000        -1.4407155000        -1.4407155000     0
Ge         2.8814310000         0.0000000000        -2.8814310000     0
Ge         4.3221465000         1.4407155000        -1.4407155000     0
Ge         0.0000000000        -5.7628620000         0.0000000000     0
Ge         1.4407155000        -4.3221465000         1.4407155000     0
Ge         2.8814310000        -2.8814310000         0.0000000000     0
Ge         4.3221465000        -1.4407155000         1.4407155000     0
Ge         5.7628620000         0.0000000000         0.0000000000     0
Ge         7.2035775000         1.4407155000         1.4407155000     0
Ge        -5.7628620000        -2.8814310000        -2.8814310000     0
Ge        -4.3221465000        -1.4407155000        -1.4407155000     0
Ge        -2.8814310000         0.0000000000        -2.8814310000     0
Ge        -1.4407155000         1.4407155000        -1.4407155000     0
Ge         0.0000000000         2.8814310000        -2.8814310000     0
Ge         1.4407155000         4.3221465000        -1.4407155000     0
Ge        -2.8814310000        -2.8814310000         0.0000000000     0
Ge        -1.4407155000        -1.4407155000         1.4407155000     0
Ge         2.8814310000         2.8814310000         0.0000000000     0
Ge         4.3221465000         4.3221465000         1.4407155000     0
Ge         0.0000000000        -2.8814310000         2.8814310000     0
Ge         1.4407155000        -1.4407155000         4.3221465000     0
Ge         2.8814310000         0.0000000000         2.8814310000     0
Ge         4.3221465000         1.4407155000         4.3221465000     0
Ge         5.7628620000         2.8814310000         2.8814310000     0
Ge        -5.7628620000         0.0000000000         0.0000000000     0
Ge        -4.3221465000         1.4407155000         1.4407155000     0
Ge        -2.8814310000         2.8814310000         0.0000000000     0
Ge        -1.4407155000         4.3221465000         1.4407155000     0
Ge         0.0000000000         5.7628620000         0.0000000000     0
Ge         1.4407155000         7.2035775000         1.4407155000     0
Ge        -2.8814310000         0.0000000000         2.8814310000     0
Ge        -1.4407155000         1.4407155000         4.3221465000     0
Ge         0.0000000000         2.8814310000         2.8814310000     0
Ge         1.4407155000         4.3221465000         4.3221465000     0
Ge         2.8814310000         5.7628620000         2.8814310000     0
Ge         0.0000000000         0.0000000000         5.7628620000     0
Ge         1.4407155000         1.4407155000         7.2035775000     0
Ge         2.8814310000         2.8814310000         5.7628620000     0
Ge         1.4407155000        -1.4407155000        -7.2035775000     0
Ge         1.4407155000        -4.3221465000        -4.3221465000     0
Ge         2.8814310000        -2.8814310000        -5.7628620000     0
Ge         4.3221465000        -1.4407155000        -4.3221465000     0
Ge         1.4407155000        -7.2035775000        -1.4407155000     0
Ge         2.8814310000        -5.7628620000        -2.8814310000     0
Ge         4.3221465000        -4.3221465000        -1.4407155000     0
Ge         5.7628620000        -2.8814310000        -2.8814310000     0
Ge         7.2035775000        -1.4407155000        -1.4407155000     0
Ge        -1.4407155000         1.4407155000        -7.2035775000     0
Ge         2.8814310000         2.8814310000        -5.7628620000     0
Ge         4.3221465000         4.3221465000        -4.3221465000     0
Ge         5.7628620000         2.8814310000        -2.8814310000     0
Ge        -1.4407155000        -7.2035775000         1.4407155000     0
Ge         2.8814310000        -5.7628620000         2.8814310000     0
Ge         4.3221465000        -4.3221465000         4.3221465000     0
Ge         5.7628620000        -2.8814310000         2.8814310000     0
Ge        -4.3221465000         1.4407155000        -4.3221465000     0
Ge        -2.8814310000         2.8814310000        -5.7628620000     0
Ge        -1.4407155000         4.3221465000        -4.3221465000     0
Ge         2.8814310000         5.7628620000        -2.8814310000     0
Ge        -4.3221465000        -4.3221465000         1.4407155000     0
Ge        -2.8814310000        -5.7628620000         2.8814310000     0
Ge        -1.4407155000        -4.3221465000         4.3221465000     0
Ge         2.8814310000        -2.8814310000         5.7628620000     0
Ge        -7.2035775000         1.4407155000        -1.4407155000     0
Ge        -5.7628620000         2.8814310000        -2.8814310000     0
Ge        -4.3221465000         4.3221465000        -1.4407155000     0
Ge        -2.8814310000         5.7628620000        -2.8814310000     0
Ge        -1.4407155000         7.2035775000        -1.4407155000     0
Ge        -7.2035775000        -1.4407155000         1.4407155000     0
Ge        -5.7628620000        -2.8814310000         2.8814310000     0
Ge        -4.3221465000        -1.4407155000         4.3221465000     0
Ge        -2.8814310000        -2.8814310000         5.7628620000     0
Ge        -1.4407155000        -1.4407155000         7.2035775000     0
Ge        -5.7628620000         2.8814310000         2.8814310000     0
Ge        -4.3221465000         4.3221465000         4.3221465000     0
Ge        -2.8814310000         5.7628620000         2.8814310000     0
Ge        -2.8814310000         2.8814310000         5.7628620000     0
Ge         7.2035775000         4.3221465000         4.3221465000     0
Ge         4.3221465000         7.2035775000         4.3221465000     0
Ge         4.3221465000         4.3221465000         7.2035775000     0
Ge         5.7628620000         5.7628620000         5.7628620000     0
Ge         7.2035775000         4.3221465000        -1.4407155000     0
Ge         8.6442930000         2.8814310000         0.0000000000     0
Ge         7.2035775000        -1.4407155000         4.3221465000     0
Ge         8.6442930000         0.0000000000         2.8814310000     0
Ge         4.3221465000         7.2035775000        -1.4407155000     0
Ge         5.7628620000         5.7628620000         0.0000000000     0
Ge         4.3221465000        -1.4407155000         7.2035775000     0
Ge         5.7628620000         0.0000000000         5.7628620000     0
Ge         2.8814310000         8.6442930000         0.0000000000     0
Ge         2.8814310000         0.0000000000         8.6442930000     0
Ge        -1.4407155000         7.2035775000         4.3221465000     0
Ge         0.0000000000         8.6442930000         2.8814310000     0
Ge        -1.4407155000         4.3221465000         7.2035775000     0
Ge         0.0000000000         5.7628620000         5.7628620000     0
Ge         0.0000000000         2.8814310000         8.6442930000     0
