         216
 junk
Na       0.00000000     0.00000000     0.00000000
Na       5.00000000     0.00000000     0.00000000
Na       2.50000000     2.50000000     0.00000000
Na       2.50000000     0.00000000     2.50000000
Na       5.00000000     2.50000000     2.50000000
Na       0.00000000     5.00000000     0.00000000
Na       0.00000000     2.50000000     2.50000000
Na       2.50000000     5.00000000     2.50000000
Na       0.00000000     0.00000000     5.00000000
Na       2.50000000     2.50000000     5.00000000
Na       5.00000000     5.00000000     5.00000000
Na      10.00000000     0.00000000     0.00000000
Na       7.50000000     2.50000000     0.00000000
Na       7.50000000     0.00000000     2.50000000
Na      10.00000000     2.50000000     2.50000000
Na       5.00000000     5.00000000     0.00000000
Na       7.50000000     5.00000000     2.50000000
Na       5.00000000     0.00000000     5.00000000
Na       7.50000000     2.50000000     5.00000000
Na      10.00000000     5.00000000     5.00000000
Na       2.50000000     7.50000000     0.00000000
Na       5.00000000     7.50000000     2.50000000
Na       7.50000000     7.50000000     5.00000000
Na       2.50000000     0.00000000     7.50000000
Na       5.00000000     2.50000000     7.50000000
Na       7.50000000     5.00000000     7.50000000
Na      10.00000000     7.50000000     7.50000000
Na       0.00000000    10.00000000     0.00000000
Na       0.00000000     7.50000000     2.50000000
Na       2.50000000    10.00000000     2.50000000
Na       0.00000000     5.00000000     5.00000000
Na       2.50000000     7.50000000     5.00000000
Na       5.00000000    10.00000000     5.00000000
Na       0.00000000     2.50000000     7.50000000
Na       2.50000000     5.00000000     7.50000000
Na       5.00000000     7.50000000     7.50000000
Na       7.50000000    10.00000000     7.50000000
Na       0.00000000     0.00000000    10.00000000
Na       2.50000000     2.50000000    10.00000000
Na       5.00000000     5.00000000    10.00000000
Na       7.50000000     7.50000000    10.00000000
Na      10.00000000    10.00000000    10.00000000
Na      12.50000000     2.50000000     0.00000000
Na      12.50000000     0.00000000     2.50000000
Na      10.00000000     5.00000000     0.00000000
Na      12.50000000     5.00000000     2.50000000
Na      10.00000000     0.00000000     5.00000000
Na      12.50000000     2.50000000     5.00000000
Na       7.50000000     7.50000000     0.00000000
Na      10.00000000     7.50000000     2.50000000
Na      12.50000000     7.50000000     5.00000000
Na       7.50000000     0.00000000     7.50000000
Na      10.00000000     2.50000000     7.50000000
Na      12.50000000     5.00000000     7.50000000
Na       5.00000000    10.00000000     0.00000000
Na       7.50000000    10.00000000     2.50000000
Na      10.00000000    10.00000000     5.00000000
Na      12.50000000    10.00000000     7.50000000
Na       5.00000000     0.00000000    10.00000000
Na       7.50000000     2.50000000    10.00000000
Na      10.00000000     5.00000000    10.00000000
Na      12.50000000     7.50000000    10.00000000
Na       2.50000000    12.50000000     0.00000000
Na       5.00000000    12.50000000     2.50000000
Na       7.50000000    12.50000000     5.00000000
Na      10.00000000    12.50000000     7.50000000
Na      12.50000000    12.50000000    10.00000000
Na       2.50000000     0.00000000    12.50000000
Na       5.00000000     2.50000000    12.50000000
Na       7.50000000     5.00000000    12.50000000
Na      10.00000000     7.50000000    12.50000000
Na      12.50000000    10.00000000    12.50000000
Na       0.00000000    12.50000000     2.50000000
Na       0.00000000    10.00000000     5.00000000
Na       2.50000000    12.50000000     5.00000000
Na       0.00000000     7.50000000     7.50000000
Na       2.50000000    10.00000000     7.50000000
Na       5.00000000    12.50000000     7.50000000
Na       0.00000000     5.00000000    10.00000000
Na       2.50000000     7.50000000    10.00000000
Na       5.00000000    10.00000000    10.00000000
Na       7.50000000    12.50000000    10.00000000
Na       0.00000000     2.50000000    12.50000000
Na       2.50000000     5.00000000    12.50000000
Na       5.00000000     7.50000000    12.50000000
Na       7.50000000    10.00000000    12.50000000
Na      10.00000000    12.50000000    12.50000000
Na      12.50000000     7.50000000     0.00000000
Na      12.50000000     0.00000000     7.50000000
Na      10.00000000    10.00000000     0.00000000
Na      12.50000000    10.00000000     2.50000000
Na      10.00000000     0.00000000    10.00000000
Na      12.50000000     2.50000000    10.00000000
Na       7.50000000    12.50000000     0.00000000
Na      10.00000000    12.50000000     2.50000000
Na      12.50000000    12.50000000     5.00000000
Na       7.50000000     0.00000000    12.50000000
Na      10.00000000     2.50000000    12.50000000
Na      12.50000000     5.00000000    12.50000000
Na       0.00000000    12.50000000     7.50000000
Na       0.00000000    10.00000000    10.00000000
Na       2.50000000    12.50000000    10.00000000
Na       0.00000000     7.50000000    12.50000000
Na       2.50000000    10.00000000    12.50000000
Na       5.00000000    12.50000000    12.50000000
Na      12.50000000    12.50000000     0.00000000
Na      12.50000000     0.00000000    12.50000000
Na       0.00000000    12.50000000    12.50000000
Cl       0.00000000     0.00000000     2.50000000
Cl       2.50000000     0.00000000     0.00000000
Cl       5.00000000     0.00000000     2.50000000
Cl       0.00000000     2.50000000     0.00000000
Cl       2.50000000     2.50000000     2.50000000
Cl       2.50000000     0.00000000     5.00000000
Cl       5.00000000     2.50000000     5.00000000
Cl       0.00000000     5.00000000     2.50000000
Cl       0.00000000     2.50000000     5.00000000
Cl       2.50000000     5.00000000     5.00000000
Cl       0.00000000     0.00000000     7.50000000
Cl       2.50000000     2.50000000     7.50000000
Cl       5.00000000     5.00000000     7.50000000
Cl       7.50000000     0.00000000     0.00000000
Cl      10.00000000     0.00000000     2.50000000
Cl       5.00000000     2.50000000     0.00000000
Cl       7.50000000     2.50000000     2.50000000
Cl       7.50000000     0.00000000     5.00000000
Cl      10.00000000     2.50000000     5.00000000
Cl       2.50000000     5.00000000     0.00000000
Cl       5.00000000     5.00000000     2.50000000
Cl       7.50000000     5.00000000     5.00000000
Cl       5.00000000     0.00000000     7.50000000
Cl       7.50000000     2.50000000     7.50000000
Cl      10.00000000     5.00000000     7.50000000
Cl       0.00000000     7.50000000     0.00000000
Cl       2.50000000     7.50000000     2.50000000
Cl       5.00000000     7.50000000     5.00000000
Cl       7.50000000     7.50000000     7.50000000
Cl       2.50000000     0.00000000    10.00000000
Cl       5.00000000     2.50000000    10.00000000
Cl       7.50000000     5.00000000    10.00000000
Cl      10.00000000     7.50000000    10.00000000
Cl       0.00000000    10.00000000     2.50000000
Cl       0.00000000     7.50000000     5.00000000
Cl       2.50000000    10.00000000     5.00000000
Cl       0.00000000     5.00000000     7.50000000
Cl       2.50000000     7.50000000     7.50000000
Cl       5.00000000    10.00000000     7.50000000
Cl       0.00000000     2.50000000    10.00000000
Cl       2.50000000     5.00000000    10.00000000
Cl       5.00000000     7.50000000    10.00000000
Cl       7.50000000    10.00000000    10.00000000
Cl       0.00000000     0.00000000    12.50000000
Cl       2.50000000     2.50000000    12.50000000
Cl       5.00000000     5.00000000    12.50000000
Cl       7.50000000     7.50000000    12.50000000
Cl      10.00000000    10.00000000    12.50000000
Cl      12.50000000     0.00000000     0.00000000
Cl      10.00000000     2.50000000     0.00000000
Cl      12.50000000     2.50000000     2.50000000
Cl      12.50000000     0.00000000     5.00000000
Cl       7.50000000     5.00000000     0.00000000
Cl      10.00000000     5.00000000     2.50000000
Cl      12.50000000     5.00000000     5.00000000
Cl      10.00000000     0.00000000     7.50000000
Cl      12.50000000     2.50000000     7.50000000
Cl       5.00000000     7.50000000     0.00000000
Cl       7.50000000     7.50000000     2.50000000
Cl      10.00000000     7.50000000     5.00000000
Cl      12.50000000     7.50000000     7.50000000
Cl       7.50000000     0.00000000    10.00000000
Cl      10.00000000     2.50000000    10.00000000
Cl      12.50000000     5.00000000    10.00000000
Cl       2.50000000    10.00000000     0.00000000
Cl       5.00000000    10.00000000     2.50000000
Cl       7.50000000    10.00000000     5.00000000
Cl      10.00000000    10.00000000     7.50000000
Cl      12.50000000    10.00000000    10.00000000
Cl       5.00000000     0.00000000    12.50000000
Cl       7.50000000     2.50000000    12.50000000
Cl      10.00000000     5.00000000    12.50000000
Cl      12.50000000     7.50000000    12.50000000
Cl       0.00000000    12.50000000     0.00000000
Cl       2.50000000    12.50000000     2.50000000
Cl       5.00000000    12.50000000     5.00000000
Cl       7.50000000    12.50000000     7.50000000
Cl      10.00000000    12.50000000    10.00000000
Cl      12.50000000    12.50000000    12.50000000
Cl       0.00000000    12.50000000     5.00000000
Cl       0.00000000    10.00000000     7.50000000
Cl       2.50000000    12.50000000     7.50000000
Cl       0.00000000     7.50000000    10.00000000
Cl       2.50000000    10.00000000    10.00000000
Cl       5.00000000    12.50000000    10.00000000
Cl       0.00000000     5.00000000    12.50000000
Cl       2.50000000     7.50000000    12.50000000
Cl       5.00000000    10.00000000    12.50000000
Cl       7.50000000    12.50000000    12.50000000
Cl      12.50000000     5.00000000     0.00000000
Cl      10.00000000     7.50000000     0.00000000
Cl      12.50000000     7.50000000     2.50000000
Cl      12.50000000     0.00000000    10.00000000
Cl       7.50000000    10.00000000     0.00000000
Cl      10.00000000    10.00000000     2.50000000
Cl      12.50000000    10.00000000     5.00000000
Cl      10.00000000     0.00000000    12.50000000
Cl      12.50000000     2.50000000    12.50000000
Cl       5.00000000    12.50000000     0.00000000
Cl       7.50000000    12.50000000     2.50000000
Cl      10.00000000    12.50000000     5.00000000
Cl      12.50000000    12.50000000     7.50000000
Cl       0.00000000    12.50000000    10.00000000
Cl       0.00000000    10.00000000    12.50000000
Cl       2.50000000    12.50000000    12.50000000
Cl      12.50000000    10.00000000     0.00000000
Cl      10.00000000    12.50000000     0.00000000
Cl      12.50000000    12.50000000     2.50000000
